
#======================================================================
# CRYSTAL DATA
#----------------------------------------------------------------------
data_VESTA_phase_1

_chemical_name_common                  'Ca4 Mg4 Si4'
_cell_length_a                         4.430222
_cell_length_b                         7.479977
_cell_length_c                         8.242676
_cell_angle_alpha                      90.000000
_cell_angle_beta                       90.000000
_cell_angle_gamma                      90.000000
_cell_volume                           273.145439
_space_group_name_H-M_alt              'P 1'
_space_group_IT_number                 1

loop_
_space_group_symop_operation_xyz
   'x, y, z'

loop_
   _atom_site_label
   _atom_site_occupancy
   _atom_site_fract_x
   _atom_site_fract_y
   _atom_site_fract_z
   _atom_site_adp_type
   _atom_site_U_iso_or_equiv
   _atom_site_type_symbol
   Ca0        1.0     0.250000     0.017789     0.182688    Uiso  ? Ca
   Ca1        1.0     0.750000     0.982211     0.817312    Uiso  ? Ca
   Ca2        1.0     0.250000     0.517789     0.317312    Uiso  ? Ca
   Ca3        1.0     0.750000     0.482211     0.682688    Uiso  ? Ca
   Mg4        1.0     0.750000     0.853958     0.435051    Uiso  ? Mg
   Mg5        1.0     0.250000     0.646042     0.935051    Uiso  ? Mg
   Mg6        1.0     0.750000     0.353958     0.064949    Uiso  ? Mg
   Mg7        1.0     0.250000     0.146042     0.564949    Uiso  ? Mg
   Si8        1.0     0.250000     0.271378     0.887264    Uiso  ? Si
   Si9        1.0     0.750000     0.228622     0.387264    Uiso  ? Si
   Si10       1.0     0.250000     0.771378     0.612736    Uiso  ? Si
   Si11       1.0     0.750000     0.728622     0.112736    Uiso  ? Si
