
#======================================================================
# CRYSTAL DATA
#----------------------------------------------------------------------
data_VESTA_phase_1

_chemical_name_common                  'Zr4 Ni4 Sn4'
_cell_length_a                         6.162640
_cell_length_b                         6.162640
_cell_length_c                         6.162640
_cell_angle_alpha                      90.000000
_cell_angle_beta                       90.000000
_cell_angle_gamma                      90.000000
_cell_volume                           234.045565
_space_group_name_H-M_alt              'P 1'
_space_group_IT_number                 1

loop_
_space_group_symop_operation_xyz
   'x, y, z'

loop_
   _atom_site_label
   _atom_site_occupancy
   _atom_site_fract_x
   _atom_site_fract_y
   _atom_site_fract_z
   _atom_site_adp_type
   _atom_site_U_iso_or_equiv
   _atom_site_type_symbol
   Zr0        1.0     0.000000     0.000000     0.000000    Uiso  ? Zr
   Zr0        1.0     0.000000     0.500000     0.500000    Uiso  ? Zr
   Zr0        1.0     0.500000     0.000000     0.500000    Uiso  ? Zr
   Zr0        1.0     0.500000     0.500000     0.000000    Uiso  ? Zr
   Ni4        1.0     0.250000     0.250000     0.750000    Uiso  ? Ni
   Ni4        1.0     0.750000     0.750000     0.750000    Uiso  ? Ni
   Ni4        1.0     0.750000     0.250000     0.250000    Uiso  ? Ni
   Ni4        1.0     0.250000     0.750000     0.250000    Uiso  ? Ni
   Sn8        1.0     0.500000     0.000000     0.000000    Uiso  ? Sn
   Sn8        1.0     0.000000     0.500000     0.000000    Uiso  ? Sn
   Sn8        1.0     0.000000     0.000000     0.500000    Uiso  ? Sn
   Sn8        1.0     0.500000     0.500000     0.500000    Uiso  ? Sn
